<?xml version="1.0" encoding="UTF-8"?>

<!-- generated on 2026-02-16T15:43:49.793844+03:00 by Eclipse SUMO netconvert 1.25.0
<netconvertConfiguration xmlns:xsi="http://www.w3.org/2001/XMLSchema-instance" xsi:noNamespaceSchemaLocation="http://sumo.dlr.de/xsd/netconvertConfiguration.xsd">

    <input>
        <sumo-net-file value="sumo_files/addis.net.xml"/>
    </input>

    <output>
        <output-file value="resources\gtfs\numerical.net.xml"/>
        <dlr-navteq.precision value="0"/>
        <output.original-names value="true"/>
    </output>

    <processing>
        <numerical-ids value="true"/>
        <geometry.min-radius.fix.railways value="false"/>
        <geometry.avoid-overlap value="false"/>
        <geometry.max-grade.fix value="false"/>
        <offset.disable-normalization value="true"/>
        <lefthand value="0"/>
    </processing>

    <junctions>
        <no-internal-links value="true"/>
        <no-turnarounds value="true"/>
        <junctions.corner-detail value="0"/>
        <junctions.limit-turn-speed value="5.50"/>
        <rectangular-lane-cut value="0"/>
    </junctions>

    <pedestrian>
        <walkingareas value="0"/>
    </pedestrian>

    <formats>
        <discard-params value="origId,origFrom,origTo"/>
    </formats>

    <report>
        <no-warnings value="true"/>
        <aggregate-warnings value="1"/>
    </report>

</netconvertConfiguration>
-->

<net version="1.20" limitTurnSpeed="5.50" avoidOverlap="0" xmlns:xsi="http://www.w3.org/2001/XMLSchema-instance" xsi:noNamespaceSchemaLocation="http://sumo.dlr.de/xsd/net_file.xsd">

    <location netOffset="-477680.84,-995413.93" convBoundary="0.00,0.00,12724.04,8783.78" origBoundary="38.796927,9.005056,38.912692,9.084518" projParameter="+proj=utm +zone=37 +ellps=WGS84 +datum=WGS84 +units=m +no_defs"/>

    <type id="highway.primary" priority="12" numLanes="2" speed="27.78" disallow="tram rail_urban rail rail_electric rail_fast ship container cable_car subway aircraft wheelchair scooter drone" oneway="0"/>
    <type id="highway.primary_link" priority="7" numLanes="1" speed="22.22" disallow="tram rail_urban rail rail_electric rail_fast ship container cable_car subway aircraft wheelchair scooter drone" oneway="0"/>
    <type id="highway.secondary" priority="11" numLanes="1" speed="27.78" disallow="tram rail_urban rail rail_electric rail_fast ship container cable_car subway aircraft wheelchair scooter drone" oneway="0"/>
    <type id="highway.secondary_link" priority="6" numLanes="1" speed="22.22" disallow="tram rail_urban rail rail_electric rail_fast ship container cable_car subway aircraft wheelchair scooter drone" oneway="0"/>
    <type id="highway.service" priority="1" numLanes="1" speed="5.56" allow="pedestrian delivery bicycle" oneway="0"/>
    <type id="highway.tertiary" priority="10" numLanes="1" speed="22.22" disallow="tram rail_urban rail rail_electric rail_fast ship container cable_car subway aircraft wheelchair scooter drone" oneway="0"/>
    <type id="highway.tertiary_link" priority="5" numLanes="1" speed="22.22" disallow="tram rail_urban rail rail_electric rail_fast ship container cable_car subway aircraft wheelchair scooter drone" oneway="0"/>
    <type id="highway.trunk" priority="13" numLanes="2" speed="27.78" disallow="pedestrian bicycle tram rail_urban rail rail_electric rail_fast ship container cable_car subway aircraft wheelchair scooter drone" oneway="0"/>
    <type id="highway.trunk_link" priority="8" numLanes="1" speed="22.22" disallow="pedestrian bicycle tram rail_urban rail rail_electric rail_fast ship container cable_car subway aircraft wheelchair scooter drone" oneway="0"/>
    <type id="highway.unclassified" priority="4" numLanes="1" speed="13.89" disallow="tram rail_urban rail rail_electric rail_fast ship container cable_car subway aircraft wheelchair scooter drone" oneway="0"/>

    <edge id="-1017326780" from="9383512143" to="5616478848" priority="4" type="highway.unclassified" shape="3151.00,6290.76 3159.77,6250.09 3160.19,6211.87">
        <lane id="-1017326780_0" index="0" disallow="tram rail_urban rail rail_electric rail_fast ship container cable_car subway aircraft wheelchair scooter drone" speed="13.89" length="79.83" shape="3149.44,6290.42 3158.17,6249.91 3158.59,6211.85"/>
    </edge>
    <edge id="-1108502722" from="5513034879" to="10142544141" priority="4" type="highway.unclassified" shape="7159.68,4055.53 7148.37,4057.07 7140.77,4054.27 7121.21,4041.36 7075.81,4010.74 7044.27,3994.23 7005.80,3983.57 6974.27,3982.55 6948.62,3987.38 6922.91,3998.31 6875.53,4016.33 6816.61,4025.29 6767.38,4024.31 6742.12,4017.41 6699.27,3995.13 6635.35,3941.37">
        <lane id="-1108502722_0" index="0" disallow="tram rail_urban rail rail_electric rail_fast ship container cable_car subway aircraft wheelchair scooter drone" speed="13.89" length="576.08" shape="7145.97,4057.89 7140.04,4055.71 7120.32,4042.69 7074.99,4012.12 7043.68,3995.73 7005.56,3985.16 6974.39,3984.15 6949.09,3988.92 6923.51,3999.79 6875.94,4017.89 6816.72,4026.89 6767.15,4025.91 6741.53,4018.91 6698.38,3996.47 6634.32,3942.59"/>
    </edge>
    <edge id="-1108502723" from="10142544141" to="10142544142" priority="4" type="highway.unclassified">
        <lane id="-1108502723_0" index="0" disallow="tram rail_urban rail rail_electric rail_fast ship container cable_car subway aircraft wheelchair scooter drone" speed="13.89" length="106.90" shape="6634.39,3942.65 6548.86,3878.72"/>
    </edge>
    <edge id="-1108502724" from="10142544142" to="10142544143" priority="4" type="highway.unclassified">
        <lane id="-1108502724_0" index="0" disallow="tram rail_urban rail rail_electric rail_fast ship container cable_car subway aircraft wheelchair scooter drone" speed="13.89" length="67.34" shape="6548.73,3878.62 6493.61,3840.67"/>
    </edge>
    <edge id="-1108502725" from="10142544143" to="548184760" priority="4" type="highway.unclassified" shape="6494.27,3839.18 6433.28,3812.01 6421.96,3799.32">
        <lane id="-1108502725_0" index="0" disallow="tram rail_urban rail rail_electric rail_fast ship container cable_car subway aircraft wheelchair scooter drone" speed="13.89" length="60.05" shape="6493.35,3840.52 6449.43,3820.96"/>
    </edge>
    <edge id="-1158573550" from="10774460820" to="283262859" priority="4" type="highway.unclassified" shape="4730.65,2319.52 4742.11,2319.85 4749.18,2321.31 4757.31,2323.50">
        <lane id="-1158573550_0" index="0" disallow="tram rail_urban rail rail_electric rail_fast ship container cable_car subway aircraft wheelchair scooter drone" speed="13.89" length="27.10" shape="4741.74,2318.24 4742.30,2318.25 4749.55,2319.75 4750.25,2319.94"/>
    </edge>
    <edge id="-116750744" from="1275584198" to="1275584220" priority="7" type="highway.primary_link">
        <lane id="-116750744_0" index="0" disallow="tram rail_urban rail rail_electric rail_fast ship container cable_car subway aircraft wheelchair scooter drone" speed="22.22" length="28.44" shape="10453.04,1877.63 10452.98,1896.18"/>
    </edge>
    <edge id="-116753062" from="1315427439" to="5544222177" priority="4" type="highway.unclassified" shape="10780.53,2171.36 10757.56,2177.84 10739.02,2180.03 10730.08,2185.26 10723.45,2191.47 10720.31,2200.54 10721.49,2207.85 10724.50,2213.97 10760.84,2240.26 10777.72,2254.73 10790.78,2260.99 10804.30,2264.67 10852.99,2275.62 10860.35,2278.84 10864.51,2282.12 10866.54,2289.67 10865.23,2295.67 10859.56,2302.42 10813.10,2350.60 10803.78,2365.54 10798.47,2381.06 10797.59,2395.58 10798.34,2417.24 10802.32,2434.95 10808.42,2464.26 10815.61,2498.79 10827.30,2566.79 10831.56,2596.75 10839.53,2629.98 10854.21,2671.18 10865.78,2695.88 10882.47,2723.69 11043.01,2927.48 11218.42,3158.81 11225.39,3167.38 11286.89,3243.12 11311.07,3272.10 11335.31,3292.54 11369.01,3323.77 11382.42,3334.32 11402.89,3343.04">
        <lane id="-116753062_0" index="0" disallow="tram rail_urban rail rail_electric rail_fast ship container cable_car subway aircraft wheelchair scooter drone" speed="13.89" length="1537.86" shape="10780.79,2172.95 10757.87,2179.41 10739.54,2181.58 10731.04,2186.55 10724.83,2192.37 10721.95,2200.68 10723.03,2207.36 10725.76,2212.91 10761.83,2239.00 10778.60,2253.38 10791.34,2259.48 10804.69,2263.12 10853.49,2274.09 10861.18,2277.46 10865.92,2281.19 10868.19,2289.63 10866.71,2296.40 10860.75,2303.49 10814.37,2351.59 10805.23,2366.23 10800.05,2381.37 10799.19,2395.60 10799.93,2417.04 10803.88,2434.61 10809.99,2463.93 10817.18,2498.49 10828.88,2566.54 10833.13,2596.45 10841.07,2629.52 10855.69,2670.57 10867.19,2695.13 10883.79,2722.78 11044.28,2926.50 11219.68,3157.82 11226.63,3166.37 11288.13,3242.10 11312.21,3270.97 11336.37,3291.34 11370.05,3322.55 11383.24,3332.93 11396.29,3338.49"/>
    </edge>
    <edge id="-1181781069" from="547926666" to="10973960230" priority="11" type="highway.secondary" shape="3256.80,3702.66 3297.74,3627.39 3312.98,3598.58 3339.10,3545.04 3376.64,3467.29 3411.20,3394.04">
        <lane id="-1181781069_0" index="0" disallow="tram rail_urban rail rail_electric rail_fast ship container cable_car subway aircraft wheelchair scooter drone" speed="27.78" length="345.18" shape="3255.46,3701.78 3296.33,3626.63 3311.55,3597.85 3337.66,3544.34 3375.20,3466.60 3409.75,3393.36"/>
    </edge>
    <edge id="-1181781073" from="10973960230" to="444454009" priority="11" type="highway.secondary">
        <lane id="-1181781073_0" index="0" disallow="tram rail_urban rail rail_electric rail_fast ship container cable_car subway aircraft wheelchair scooter drone" speed="27.78" length="38.35" shape="3409.75,3393.36 3421.35,3368.78"/>
    </edge>
    <edge id="-1239423864" from="5183898596" to="5524187133" priority="12" type="highway.primary">
        <lane id="-1239423864_0" index="0" disallow="tram rail_urban rail rail_electric rail_fast ship container cable_car subway aircraft wheelchair scooter drone" speed="27.78" length="17.58" shape="3417.55,3345.33 3422.29,3348.61"/>
        <lane id="-1239423864_1" index="1" disallow="tram rail_urban rail rail_electric rail_fast ship container cable_car subway aircraft wheelchair scooter drone" speed="27.78" length="17.58" shape="3415.73,3347.96 3420.47,3351.24"/>
    </edge>
    <edge id="-1239423865" from="5524187133" to="444454009" priority="12" type="highway.primary">
        <lane id="-1239423865_0" index="0" disallow="tram rail_urban rail rail_electric rail_fast ship container cable_car subway aircraft wheelchair scooter drone" speed="27.78" length="4.03" shape="3429.21,3353.88 3429.34,3354.03"/>
        <lane id="-1239423865_1" index="1" disallow="tram rail_urban rail rail_electric rail_fast ship container cable_car subway aircraft wheelchair scooter drone" speed="27.78" length="4.03" shape="3426.77,3355.95 3426.90,3356.10"/>
    </edge>
    <edge id="-1263822043" from="2727568267" to="2727568361" priority="4" type="highway.unclassified" shape="12607.22,7088.45 12589.89,7106.87 12559.17,7133.21 12512.74,7179.19 12441.73,7260.82">
        <lane id="-1263822043_0" index="0" disallow="tram rail_urban rail rail_electric rail_fast ship container cable_car subway aircraft wheelchair scooter drone" speed="13.89" length="239.30" shape="12608.28,7089.65 12591.00,7108.03 12560.26,7134.39 12513.91,7180.29 12442.94,7261.87"/>
    </edge>
    <edge id="-1330934833" from="1766513574" to="1293233285" priority="11" type="highway.secondary" shape="1021.45,5055.34 1024.45,5026.40 1021.63,4996.48 1017.19,4974.37 1016.89,4958.40 1016.68,4930.51 1015.13,4882.37 1009.16,4848.89 1006.08,4815.80 1006.55,4773.19 1010.80,4752.40 1024.16,4715.88 1044.44,4661.44 1057.87,4635.88 1072.78,4615.88 1080.75,4605.18 1087.44,4595.24 1095.09,4582.64 1097.16,4572.98 1088.36,4540.88 1077.96,4502.70 1071.45,4477.52 1069.32,4450.58 1075.38,4428.02 1091.62,4410.95 1104.42,4392.82">
        <lane id="-1330934833_0" index="0" disallow="tram rail_urban rail rail_electric rail_fast ship container cable_car subway aircraft wheelchair scooter drone" speed="27.78" length="700.55" shape="1020.66,5047.43 1022.84,5026.39 1020.04,4996.71 1015.59,4974.54 1015.29,4958.42 1015.08,4930.54 1013.53,4882.54 1007.57,4849.10 1004.48,4815.87 1004.95,4773.02 1009.26,4751.96 1022.66,4715.33 1042.98,4660.79 1056.51,4635.02 1071.50,4614.92 1079.44,4604.25 1086.09,4594.38 1093.58,4582.04 1095.51,4573.03 1086.82,4541.30 1076.41,4503.11 1069.87,4477.79 1067.70,4450.43 1073.94,4427.21 1090.38,4409.93 1096.42,4401.38"/>
    </edge>
    <edge id="-1330934836" from="13346586230" to="12314533151" priority="10" type="highway.tertiary" shape="1234.54,3183.84 1207.06,3191.21 1088.75,3229.41 1070.03,3235.53 1057.20,3237.28 1031.76,3237.71 1008.67,3240.72 993.34,3242.73 986.61,3244.82 978.99,3251.48 963.02,3283.72 958.85,3289.40 946.40,3306.45 890.85,3367.56 874.43,3395.62 855.13,3418.18 841.03,3432.04 804.76,3460.64 799.40,3472.54 803.55,3480.63 814.21,3485.95 827.59,3488.25 845.99,3486.71 878.81,3487.38 909.98,3491.31 922.95,3495.28 931.14,3502.13 936.51,3511.01 938.47,3522.36 936.87,3535.51 929.94,3545.88 911.72,3555.76 894.64,3563.16 889.82,3570.26 886.14,3581.16 887.36,3601.21 892.34,3636.91 899.38,3666.38 903.43,3679.05 908.57,3690.13 919.93,3704.40 961.09,3729.15 966.79,3732.57 980.09,3747.35 987.62,3766.31 994.60,3791.89 998.32,3950.74 996.63,3983.20 989.18,4009.49 971.78,4054.93 943.18,4109.97 911.16,4165.95 845.24,4257.80 808.43,4323.32 797.33,4352.88">
        <lane id="-1330934836_0" index="0" disallow="tram rail_urban rail rail_electric rail_fast ship container cable_car subway aircraft wheelchair scooter drone" speed="22.22" length="1668.63" shape="1234.56,3185.49 1207.51,3192.74 1089.24,3230.93 1070.39,3237.10 1057.32,3238.88 1031.88,3239.31 1008.88,3242.31 993.68,3244.30 987.41,3246.25 980.28,3252.48 964.39,3284.55 960.14,3290.34 947.64,3307.46 892.15,3368.51 875.74,3396.55 856.30,3419.27 842.09,3433.24 806.06,3461.65 801.18,3472.49 804.73,3479.43 814.71,3484.41 827.66,3486.64 845.94,3485.11 878.93,3485.78 910.32,3489.74 923.73,3493.84 932.37,3501.07 938.04,3510.44 940.09,3522.32 938.41,3536.08 931.05,3547.10 912.42,3557.20 895.70,3564.44 891.27,3570.98 887.76,3581.38 888.95,3601.05 893.91,3636.61 900.92,3665.95 904.92,3678.47 909.94,3689.28 921.00,3703.18 961.91,3727.78 967.82,3731.32 981.47,3746.49 989.14,3765.80 996.19,3791.66 999.92,3950.76 998.22,3983.46 990.70,4010.00 973.24,4055.59 944.58,4110.74 912.51,4166.82 846.59,4258.66 809.88,4324.00 801.59,4346.09"/>
    </edge>
    <edge id="-1331338415" from="12318291856" to="2090717640" priority="10" type="highway.tertiary">
        <lane id="-1331338415_0" index="0" disallow="tram rail_urban rail rail_electric rail_fast ship container cable_car subway aircraft wheelchair scooter drone" speed="22.22" length="54.83" shape="12273.13,7953.83 12238.61,7996.13"/>
    </edge>
    <edge id="-1331426971" from="1650732900" to="13448894326" priority="10" type="highway.tertiary" shape="10304.42,973.86 10300.22,967.79 10297.63,959.72 10293.74,830.81 10291.79,766.48 10287.28,617.36">
        <lane id="-1331426971_0" index="0" disallow="tram rail_urban rail rail_electric rail_fast ship container cable_car subway aircraft wheelchair scooter drone" speed="22.22" length="363.71" shape="10299.87,970.10 10298.77,968.51 10296.04,959.99 10292.14,830.86 10290.19,766.53 10285.90,624.67"/>
    </edge>
    <edge id="-1426821229" from="2096200459" to="5460707070" priority="10" type="highway.tertiary" shape="4043.06,839.07 4040.78,817.75 4039.25,806.72 4037.82,798.23">
        <lane id="-1426821229_0" index="0" disallow="tram rail_urban rail rail_electric rail_fast ship container cable_car subway aircraft wheelchair scooter drone" speed="22.22" length="41.19" shape="4041.47,839.24 4039.19,817.95 4037.66,806.90"/>
    </edge>
    <edge id="-1455325590" from="5578013447" to="547925554" priority="11" type="highway.secondary" shape="1459.30,3310.62 1482.09,3313.78 1527.25,3321.43 1554.54,3329.75 1584.49,3341.14 1628.57,3358.64 1655.38,3367.98 1665.25,3377.67 1682.72,3406.07 1704.69,3434.76 1741.95,3477.74 1752.33,3490.24 1761.91,3504.14 1778.43,3529.76 1784.53,3537.93 1797.10,3552.22 1811.48,3566.50 1826.07,3577.33 1847.01,3592.16 1857.48,3597.08 1871.88,3600.92">
        <lane id="-1455325590_0" index="0" disallow="tram rail_urban rail rail_electric rail_fast ship container cable_car subway aircraft wheelchair scooter drone" speed="27.78" length="528.80" shape="1459.52,3309.04 1482.33,3312.20 1527.62,3319.87 1555.06,3328.24 1585.07,3339.65 1629.13,3357.14 1656.25,3366.59 1666.51,3376.67 1684.04,3405.16 1705.93,3433.75 1743.17,3476.70 1753.61,3489.27 1763.24,3503.25 1779.74,3528.85 1785.77,3536.92 1798.27,3551.12 1812.53,3565.28 1827.01,3576.03 1847.82,3590.77 1858.03,3595.57 1872.06,3599.31"/>
    </edge>
    <edge id="-1466043784" from="13446540761" to="13446541014" priority="11" type="highway.secondary" shape="2650.04,7096.02 2636.01,7111.32 2625.94,7130.50 2616.53,7162.65 2620.91,7357.52 2619.21,7389.04 2613.44,7419.28 2567.85,7572.65 2550.94,7615.68 2489.48,7749.23 2482.63,7771.18 2474.50,7801.21 2465.10,7860.20 2459.32,7875.11 2426.27,7918.41 2409.26,7931.94 2390.66,7941.70 2365.34,7950.35 2329.06,7963.33 2306.76,7973.85 2283.53,7995.83 2147.37,8180.08 2133.58,8191.16 2118.47,8198.11 2099.76,8203.39 2040.23,8209.80 2027.76,8213.00 2013.97,8220.32 2001.51,8232.72 1993.76,8249.06 1991.89,8262.96 1993.59,8280.04 2000.21,8298.05 2032.75,8364.88 2038.43,8380.83 2040.52,8396.98 2028.46,8463.26 2028.09,8482.22 2032.06,8503.06 2039.07,8521.65 2074.98,8582.66">
        <lane id="-1466043784_0" index="0" disallow="tram rail_urban rail rail_electric rail_fast ship container cable_car subway aircraft wheelchair scooter drone" speed="27.78" length="1798.43" shape="2650.74,7097.63 2637.33,7112.25 2627.43,7131.10 2618.14,7162.86 2622.51,7357.55 2620.80,7389.23 2615.00,7419.66 2569.36,7573.17 2552.41,7616.31 2490.98,7749.81 2484.17,7771.63 2476.07,7801.55 2466.65,7860.62 2460.73,7875.90 2427.42,7919.54 2410.14,7933.29 2391.29,7943.17 2365.87,7951.86 2329.67,7964.81 2307.67,7975.19 2284.73,7996.89 2148.53,8181.20 2134.43,8192.53 2119.02,8199.62 2100.07,8204.97 2040.52,8211.38 2028.34,8214.50 2014.93,8221.62 2002.84,8233.66 1995.31,8249.52 1993.50,8262.99 1995.16,8279.68 2001.68,8297.42 2034.23,8364.26 2039.99,8380.45 2042.14,8397.02 2030.06,8463.42 2029.69,8482.08 2033.61,8502.62 2040.52,8520.96 2075.99,8581.21"/>
    </edge>
    <edge id="-152095684" from="305109736" to="1649240129" priority="4" type="highway.unclassified" shape="8037.75,740.13 8034.19,739.85 8029.51,740.41 7983.23,758.00 7974.38,762.68 7968.33,770.88 7959.76,788.42 7952.77,804.87 7946.40,822.15 7944.49,831.52 7944.89,838.59 7946.11,855.46 7948.72,886.77 7942.98,938.07 7929.55,969.36 7920.98,986.62 7902.75,1021.22 7894.30,1037.48 7891.21,1047.83 7889.74,1056.03 7890.48,1068.04 7895.19,1089.02 7899.63,1116.04 7903.33,1140.55 7900.82,1197.80 7896.40,1244.87 7892.04,1298.46 7893.03,1312.87 7899.42,1329.58 7909.76,1345.67 7927.87,1378.12 7941.92,1403.30 7951.48,1420.41 7969.94,1456.44 7979.36,1475.10 7987.41,1507.66 7996.24,1559.46 8003.68,1607.22 8013.91,1658.48 8029.50,1757.66">
        <lane id="-152095684_0" index="0" disallow="tram rail_urban rail rail_electric rail_fast ship container cable_car subway aircraft wheelchair scooter drone" speed="13.89" length="1109.88" shape="8036.47,741.63 8034.22,741.46 8029.89,741.98 7983.89,759.46 7975.45,763.92 7969.70,771.71 7961.22,789.08 7954.26,805.46 7947.94,822.59 7946.10,831.64 7946.49,838.49 7947.71,855.34 7950.33,886.79 7944.54,938.48 7931.00,970.03 7922.40,987.35 7904.17,1021.96 7895.79,1038.08 7892.77,1048.20 7891.35,1056.12 7892.07,1067.81 7896.76,1088.71 7901.21,1115.79 7904.94,1140.46 7902.42,1197.91 7897.99,1245.01 7893.64,1298.47 7894.61,1312.52 7900.86,1328.85 7911.13,1344.85 7929.27,1377.34 7943.32,1402.52 7952.89,1419.65 7971.37,1455.71 7980.87,1474.54 7988.98,1507.33 7997.82,1559.20 8005.26,1606.94 8015.49,1658.20 8029.85,1749.56"/>
    </edge>
    <edge id="-160623168" from="2871811340" to="1726739941" priority="1" type="highway.service" shape="534.80,1654.06 531.12,1661.40 526.35,1668.73 512.56,1733.16 512.12,1744.04 514.76,1749.66 522.03,1753.86 530.90,1754.17">
        <lane id="-160623168_0" index="0" allow="pedestrian delivery bicycle" speed="5.56" length="117.20" shape="531.21,1664.19 527.85,1669.35 514.15,1733.36 513.73,1743.71 515.99,1748.53 522.48,1752.27 529.80,1752.53"/>
    </edge>
    <edge id="-170186008" from="1813437397" to="1813437339" priority="10" type="highway.tertiary" shape="4225.68,5123.46 4212.89,5099.45 4194.10,5055.65 4173.27,5005.97 4169.93,4994.80 4142.50,4925.24 4139.52,4919.75 4133.95,4916.01 4127.22,4915.31 4043.45,4915.77 4035.67,4913.60 4029.00,4907.28 4017.14,4885.73 3972.06,4799.90 3928.32,4717.23 3922.95,4706.58 3919.87,4692.98 3918.94,4674.81 3920.54,4651.35 3923.78,4609.94 3935.61,4532.99 3949.47,4410.90 3952.84,4360.57 3954.89,4312.83 3953.71,4296.87 3950.69,4277.56 3947.64,4261.29 3947.78,4251.04 3949.40,4240.79 3950.90,4232.92 3953.16,4222.81">
        <lane id="-170186008_0" index="0" disallow="tram rail_urban rail rail_electric rail_fast ship container cable_car subway aircraft wheelchair scooter drone" speed="22.22" length="1048.38" shape="4222.17,5120.27 4211.45,5100.14 4192.63,5056.27 4171.76,5006.51 4168.42,4995.32 4141.05,4925.92 4138.30,4920.86 4133.39,4917.56 4127.14,4916.91 4043.24,4917.37 4034.86,4915.03 4027.72,4908.27 4015.73,4886.49 3970.64,4800.65 3926.90,4717.96 3921.43,4707.12 3918.28,4693.20 3917.34,4674.80 3918.94,4651.23 3922.19,4609.76 3934.02,4532.78 3947.88,4410.76 3951.24,4360.48 3953.29,4312.85 3952.12,4297.05 3949.11,4277.83 3946.04,4261.43 3946.18,4250.90 3947.82,4240.52 3949.33,4232.60 3951.32,4223.69"/>
    </edge>
    <edge id="-170186533" from="1813443960" to="444454597" priority="4" type="highway.unclassified" shape="5202.26,2484.61 5205.05,2537.46 5205.34,2569.17 5204.45,2573.10 5203.23,2575.98 5201.54,2577.93 5178.95,2599.06 5171.76,2611.44 5146.71,2671.12 5127.89,2717.95">
        <lane id="-170186533_0" index="0" disallow="tram rail_urban rail rail_electric rail_fast ship container cable_car subway aircraft wheelchair scooter drone" speed="13.89" length="254.82" shape="5203.86,2484.53 5206.65,2537.41 5206.94,2569.34 5205.98,2573.59 5204.60,2576.84 5202.69,2579.04 5180.22,2600.07 5173.20,2612.15 5148.19,2671.73 5129.43,2718.41"/>
    </edge>
    <edge id="-188563298" from="5335084292" to="1766513574" priority="11" type="highway.secondary" shape="523.95,6096.23 543.22,6101.63 583.17,6122.70 619.74,6138.78 642.87,6146.83 691.81,6154.41 741.78,6164.20 767.13,6167.55 784.67,6168.28 824.61,6167.66 856.59,6163.55 887.83,6157.39 904.63,6150.63 931.73,6136.85 981.54,6110.18 1011.30,6087.91 1048.43,6060.36 1069.34,6045.71 1085.54,6027.25 1094.95,6003.90 1095.49,5988.06 1093.72,5970.49 1086.06,5952.30 1071.27,5926.59 1050.27,5892.58 1028.28,5864.40 989.62,5825.24 950.42,5790.05 933.61,5773.08 915.91,5749.07 899.10,5712.18 893.17,5690.23 890.82,5681.44 888.59,5646.45 893.44,5630.41 900.51,5618.76 911.70,5605.51 927.77,5595.62 949.10,5589.80 979.20,5585.04 1009.83,5580.41 1033.40,5577.17 1095.99,5566.46 1117.83,5560.36 1136.92,5552.54 1156.70,5542.04 1228.46,5494.10 1252.82,5476.99 1268.66,5463.53 1279.75,5449.00 1285.48,5440.71 1289.23,5435.26 1294.64,5420.47 1316.01,5359.36 1324.54,5346.31 1333.75,5339.57 1346.34,5336.47 1361.78,5336.74 1377.63,5336.06 1387.50,5333.09 1396.45,5327.70 1405.38,5318.41 1409.57,5308.05 1409.97,5298.76 1409.30,5291.90 1406.61,5282.22 1402.55,5277.12 1395.23,5269.58 1356.75,5244.30 1327.89,5223.06 1178.44,5126.39 1151.22,5113.08 1080.31,5076.73 1051.37,5064.70 1021.45,5055.34">
        <lane id="-188563298_0" index="0" disallow="tram rail_urban rail rail_electric rail_fast ship container cable_car subway aircraft wheelchair scooter drone" speed="27.78" length="2215.74" shape="525.24,6094.93 543.82,6100.14 583.87,6121.26 620.33,6137.29 643.26,6145.27 692.09,6152.83 742.04,6162.62 767.27,6165.95 784.69,6166.68 824.50,6166.06 856.33,6161.97 887.37,6155.85 903.97,6149.17 930.99,6135.43 980.68,6108.83 1010.34,6086.63 1047.49,6059.06 1068.26,6044.51 1084.16,6026.40 1093.36,6003.56 1093.89,5988.11 1092.15,5970.89 1084.62,5953.01 1069.90,5927.41 1048.95,5893.50 1027.08,5865.46 988.52,5826.40 949.32,5791.21 932.39,5774.12 914.52,5749.89 897.59,5712.72 891.63,5690.65 889.23,5681.70 886.97,5646.26 891.97,5629.75 899.21,5617.82 910.64,5604.28 927.13,5594.14 948.76,5588.23 978.96,5583.46 1009.60,5578.83 1033.16,5575.59 1095.64,5564.90 1117.31,5558.84 1136.24,5551.09 1155.88,5540.66 1227.56,5492.78 1251.84,5475.72 1267.49,5462.42 1278.46,5448.06 1284.16,5439.80 1287.80,5434.52 1293.13,5419.93 1314.56,5358.65 1323.36,5345.19 1333.06,5338.09 1346.16,5334.87 1361.76,5335.14 1377.36,5334.47 1386.85,5331.62 1395.44,5326.44 1404.01,5317.52 1407.98,5307.71 1408.37,5298.80 1407.72,5292.19 1405.16,5282.96 1401.35,5278.18 1394.20,5270.82 1355.84,5245.61 1326.98,5224.38 1177.65,5127.79 1150.50,5114.51 1079.64,5078.18 1050.82,5066.21 1027.29,5058.84"/>
    </edge>
    <edge id="-199007803" from="2090717422" to="1315426645" priority="4" type="highway.unclassified" shape="10342.89,6499.24 10246.99,6424.91 10197.99,6384.61 10109.70,6312.01 10075.52,6283.96 10025.56,6243.32 9960.99,6188.23 9924.77,6158.38 9904.38,6141.77 9860.42,6107.27 9842.71,6093.70 9821.68,6077.27 9757.67,6025.15 9720.46,5994.33 9681.53,5964.19 9667.06,5951.93 9639.74,5930.35 9598.53,5894.22 9556.84,5854.49 9473.01,5791.09">
        <lane id="-199007803_0" index="0" disallow="tram rail_urban rail rail_electric rail_fast ship container cable_car subway aircraft wheelchair scooter drone" speed="13.89" length="1122.07" shape="10339.33,6498.51 10245.99,6426.16 10196.97,6385.85 10108.68,6313.25 10074.51,6285.20 10024.54,6244.55 9959.96,6189.46 9923.76,6159.62 9903.38,6143.02 9859.44,6108.53 9841.73,6094.97 9820.68,6078.52 9756.65,6026.39 9719.46,5995.58 9680.52,5965.43 9666.05,5953.17 9638.72,5931.58 9597.45,5895.40 9555.80,5855.71 9478.45,5797.21"/>
    </edge>
    <edge id="-199007834" from="2417870133" to="13448894329" priority="10" type="highway.tertiary" shape="11554.79,8783.78 11629.41,8697.39 11637.88,8687.60 11664.17,8657.16 11709.12,8605.12 11756.95,8549.74 11841.94,8451.37 11956.50,8318.75">
        <lane id="-199007834_0" index="0" disallow="tram rail_urban rail rail_electric rail_fast ship container cable_car subway aircraft wheelchair scooter drone" speed="22.22" length="621.81" shape="11553.58,8782.73 11628.20,8696.34 11636.67,8686.55 11662.96,8656.11 11707.91,8604.07 11755.74,8548.69 11840.73,8450.32 11950.49,8323.26"/>
    </edge>
    <edge id="-199007850" from="2090717728" to="13448894349" priority="10" type="highway.tertiary" shape="12170.14,8665.11 12252.78,8555.68">
        <lane id="-199007850_0" index="0" disallow="tram rail_urban rail rail_electric rail_fast ship container cable_car subway aircraft wheelchair scooter drone" speed="22.22" length="146.42" shape="12168.86,8664.15 12247.08,8560.58"/>
    </edge>
    <edge id="-199007865" from="2090717422" to="2090717450" priority="4" type="highway.unclassified" shape="10342.89,6499.24 10233.24,6635.16 10221.87,6649.23 10136.74,6754.56 10090.70,6812.16">
        <lane id="-199007865_0" index="0" disallow="tram rail_urban rail rail_electric rail_fast ship container cable_car subway aircraft wheelchair scooter drone" speed="13.89" length="401.89" shape="10342.09,6502.78 10234.49,6636.16 10223.11,6650.24 10137.99,6755.56 10096.45,6807.52"/>
    </edge>
    <edge id="-199653560" from="2096354840" to="2096354842" priority="7" type="highway.primary_link">
        <lane id="-199653560_0" index="0" disallow="tram rail_urban rail rail_electric rail_fast ship container cable_car subway aircraft wheelchair scooter drone" speed="22.22" length="31.44" shape="6088.92,1247.69 6066.97,1248.40"/>
    </edge>
    <edge id="-200253971" from="5556016068" to="547928016" priority="4" type="highway.unclassified" shape="3205.77,5971.27 3193.38,5964.10 3155.50,5942.16 3140.46,5932.14 3118.49,5915.54 3078.91,5878.14 3064.52,5864.60 3048.88,5855.69 3018.38,5843.99 3006.79,5832.77 3000.76,5822.82 2997.30,5813.24 2998.17,5805.33 3002.44,5793.47 3011.28,5780.30 3015.55,5773.55 3017.76,5766.23 3019.37,5753.05 3016.71,5740.60 3015.08,5726.70 3015.96,5713.96 3020.23,5700.05 3028.77,5681.31 3035.71,5668.54 3066.62,5624.91 3073.86,5611.01 3075.16,5600.60 3073.08,5585.82 3067.03,5573.81 3056.56,5560.34 3043.89,5545.71 3038.72,5536.48 3036.68,5527.29 3035.32,5508.52 3037.38,5490.95 3041.94,5467.52 3048.80,5449.41 3082.83,5376.98 3088.31,5363.10 3093.91,5357.10 3104.51,5348.89 3124.70,5336.29 3132.50,5331.59 3156.10,5304.18 3182.45,5270.81 3207.96,5238.08 3218.97,5218.81 3234.28,5182.78 3243.41,5159.50 3249.59,5138.85 3251.42,5130.45 3254.13,5119.47 3259.12,5099.27 3264.00,5085.69 3271.07,5071.63 3281.85,5056.20 3293.05,5044.72 3304.66,5028.27 3315.85,5010.40 3323.35,4990.64 3328.79,4970.36 3333.50,4955.19 3337.19,4931.46 3343.07,4866.46 3343.98,4858.06 3345.32,4842.95">