<?xml version="1.0" encoding="UTF-8"?>

<!-- generated on 2026-02-16T15:39:42.598193+03:00 by Eclipse SUMO netconvert 1.25.0
<netconvertConfiguration xmlns:xsi="http://www.w3.org/2001/XMLSchema-instance" xsi:noNamespaceSchemaLocation="http://sumo.dlr.de/xsd/netconvertConfiguration.xsd">

    <input>
        <osm-files value="osm/addis_map.osm.xml"/>
    </input>

    <output>
        <output-file value="sumo_files/addis.net.xml"/>
        <ptstop-output value="sumo_files/stops.add.xml"/>
        <ptline-output value="sumo_files/ptlines.xml"/>
    </output>

    <projection>
        <proj.utm value="true"/>
    </projection>

    <tls_building>
        <tls.guess-signals value="true"/>
    </tls_building>

    <junctions>
        <junctions.join value="true"/>
    </junctions>

</netconvertConfiguration>
-->

<net version="1.20" junctionCornerDetail="5" limitTurnSpeed="5.50" xmlns:xsi="http://www.w3.org/2001/XMLSchema-instance" xsi:noNamespaceSchemaLocation="http://sumo.dlr.de/xsd/net_file.xsd">

    <location netOffset="-477680.84,-995413.93" convBoundary="0.00,0.00,12724.04,8783.78" origBoundary="38.796927,9.005056,38.912692,9.084518" projParameter="+proj=utm +zone=37 +ellps=WGS84 +datum=WGS84 +units=m +no_defs"/>

    <type id="highway.primary" priority="12" numLanes="2" speed="27.78" disallow="tram rail_urban rail rail_electric rail_fast ship container cable_car subway aircraft wheelchair scooter drone" oneway="0"/>
    <type id="highway.primary_link" priority="7" numLanes="1" speed="22.22" disallow="tram rail_urban rail rail_electric rail_fast ship container cable_car subway aircraft wheelchair scooter drone" oneway="0"/>
    <type id="highway.secondary" priority="11" numLanes="1" speed="27.78" disallow="tram rail_urban rail rail_electric rail_fast ship container cable_car subway aircraft wheelchair scooter drone" oneway="0"/>
    <type id="highway.secondary_link" priority="6" numLanes="1" speed="22.22" disallow="tram rail_urban rail rail_electric rail_fast ship container cable_car subway aircraft wheelchair scooter drone" oneway="0"/>
    <type id="highway.service" priority="1" numLanes="1" speed="5.56" allow="pedestrian delivery bicycle" oneway="0"/>
    <type id="highway.tertiary" priority="10" numLanes="1" speed="22.22" disallow="tram rail_urban rail rail_electric rail_fast ship container cable_car subway aircraft wheelchair scooter drone" oneway="0"/>
    <type id="highway.tertiary_link" priority="5" numLanes="1" speed="22.22" disallow="tram rail_urban rail rail_electric rail_fast ship container cable_car subway aircraft wheelchair scooter drone" oneway="0"/>
    <type id="highway.trunk" priority="13" numLanes="2" speed="27.78" disallow="pedestrian bicycle tram rail_urban rail rail_electric rail_fast ship container cable_car subway aircraft wheelchair scooter drone" oneway="0"/>
    <type id="highway.trunk_link" priority="8" numLanes="1" speed="22.22" disallow="pedestrian bicycle tram rail_urban rail rail_electric rail_fast ship container cable_car subway aircraft wheelchair scooter drone" oneway="0"/>
    <type id="highway.unclassified" priority="4" numLanes="1" speed="13.89" disallow="tram rail_urban rail rail_electric rail_fast ship container cable_car subway aircraft wheelchair scooter drone" oneway="0"/>

    <edge id=":10038661523_0" function="internal">
        <lane id=":10038661523_0_0" index="0" disallow="tram rail_urban rail rail_electric rail_fast ship container cable_car subway aircraft wheelchair scooter drone" speed="13.89" length="0.10" shape="2624.60,1552.90 2624.60,1552.90"/>
        <lane id=":10038661523_0_1" index="1" disallow="tram rail_urban rail rail_electric rail_fast ship container cable_car subway aircraft wheelchair scooter drone" speed="13.89" length="0.10" shape="2624.15,1549.73 2624.15,1549.73"/>
        <lane id=":10038661523_0_2" index="2" disallow="tram rail_urban rail rail_electric rail_fast ship container cable_car subway aircraft wheelchair scooter drone" speed="13.89" length="0.10" shape="2623.71,1546.57 2623.71,1546.57"/>
        <lane id=":10038661523_0_3" index="3" disallow="tram rail_urban rail rail_electric rail_fast ship container cable_car subway aircraft wheelchair scooter drone" speed="13.89" length="0.10" shape="2623.26,1543.40 2623.26,1543.40"/>
    </edge>
    <edge id=":10039012108_0" function="internal">
        <lane id=":10039012108_0_0" index="0" disallow="tram rail_urban rail rail_electric rail_fast ship container cable_car subway aircraft wheelchair scooter drone" speed="12.50" length="0.10" shape="4447.13,2766.19 4447.13,2766.19"/>
        <lane id=":10039012108_0_1" index="1" disallow="tram rail_urban rail rail_electric rail_fast ship container cable_car subway aircraft wheelchair scooter drone" speed="12.50" length="0.10" shape="4448.09,2763.13 4448.09,2763.13"/>
    </edge>
    <edge id=":10055714709_0" function="internal">
        <lane id=":10055714709_0_0" index="0" disallow="tram rail_urban rail rail_electric rail_fast ship container cable_car subway aircraft wheelchair scooter drone" speed="9.29" length="7.71" shape="4302.77,704.11 4302.38,701.97 4301.56,700.66 4300.27,699.58 4298.47,698.13"/>
    </edge>
    <edge id=":10055714709_1" function="internal">
        <lane id=":10055714709_1_0" index="0" disallow="tram rail_urban rail rail_electric rail_fast ship container cable_car subway aircraft wheelchair scooter drone" speed="27.78" length="7.84" shape="4302.77,704.11 4302.25,696.28"/>
        <lane id=":10055714709_1_1" index="1" disallow="tram rail_urban rail rail_electric rail_fast ship container cable_car subway aircraft wheelchair scooter drone" speed="27.78" length="7.84" shape="4305.96,703.90 4305.45,696.07"/>
    </edge>
    <edge id=":10055982300_0" function="internal">
        <lane id=":10055982300_0_0" index="0" disallow="tram rail_urban rail rail_electric rail_fast ship container cable_car subway aircraft wheelchair scooter drone" speed="19.45" length="0.30" shape="5755.21,1754.50 5755.51,1754.48"/>
        <lane id=":10055982300_0_1" index="1" disallow="tram rail_urban rail rail_electric rail_fast ship container cable_car subway aircraft wheelchair scooter drone" speed="19.45" length="0.30" shape="5755.37,1757.70 5755.67,1757.68"/>
    </edge>
    <edge id=":10142544141_0" function="internal">
        <lane id=":10142544141_0_0" index="0" disallow="tram rail_urban rail rail_electric rail_fast ship container cable_car subway aircraft wheelchair scooter drone" speed="13.89" length="0.10" shape="6634.32,3942.59 6634.39,3942.65"/>
    </edge>
    <edge id=":10142544141_1" function="internal">
        <lane id=":10142544141_1_0" index="0" disallow="tram rail_urban rail rail_electric rail_fast ship container cable_car subway aircraft wheelchair scooter drone" speed="13.89" length="0.10" shape="6636.31,3940.09 6636.38,3940.15"/>
    </edge>
    <edge id=":10142544142_0" function="internal">
        <lane id=":10142544142_0_0" index="0" disallow="tram rail_urban rail rail_electric rail_fast ship container cable_car subway aircraft wheelchair scooter drone" speed="13.89" length="0.16" shape="6548.86,3878.72 6548.73,3878.62"/>
    </edge>
    <edge id=":10142544142_1" function="internal">
        <lane id=":10142544142_1_0" index="0" disallow="tram rail_urban rail rail_electric rail_fast ship container cable_car subway aircraft wheelchair scooter drone" speed="13.89" length="0.29" shape="6550.54,3875.99 6550.78,3876.16"/>
    </edge>
    <edge id=":10142544143_0" function="internal">
        <lane id=":10142544143_0_0" index="0" disallow="tram rail_urban rail rail_electric rail_fast ship container cable_car subway aircraft wheelchair scooter drone" speed="13.89" length="0.29" shape="6493.61,3840.67 6493.53,3840.62 6493.48,3840.58 6493.43,3840.56 6493.35,3840.52"/>
    </edge>
    <edge id=":10142544143_1" function="internal">
        <lane id=":10142544143_1_0" index="0" disallow="tram rail_urban rail rail_electric rail_fast ship container cable_car subway aircraft wheelchair scooter drone" speed="13.89" length="0.88" shape="6494.65,3837.60 6494.89,3837.71 6495.05,3837.79 6495.20,3837.88 6495.42,3838.03"/>
    </edge>
    <edge id=":10774460820_0" function="internal">
        <lane id=":10774460820_0_0" index="0" disallow="tram rail_urban rail rail_electric rail_fast ship container cable_car subway aircraft wheelchair scooter drone" speed="7.24" length="9.96" shape="4741.65,2321.44 4738.76,2321.68 4736.55,2322.61 4735.01,2324.21 4734.14,2326.50"/>
    </edge>
    <edge id=":10774460820_1" function="internal">
        <lane id=":10774460820_1_0" index="0" disallow="tram rail_urban rail rail_electric rail_fast ship container cable_car subway aircraft wheelchair scooter drone" speed="8.63" length="17.42" shape="4741.65,2321.44 4736.54,2320.66 4733.02,2318.66 4731.08,2315.45 4730.72,2311.01"/>
    </edge>
    <edge id=":10774460820_2" function="internal">
        <lane id=":10774460820_2_0" index="0" disallow="tram rail_urban rail rail_electric rail_fast ship container cable_car subway aircraft wheelchair scooter drone" speed="3.65" length="4.67" shape="4741.65,2321.44 4740.47,2320.60 4740.09,2319.79 4740.52,2319.00 4741.74,2318.24"/>
    </edge>
    <edge id=":10774460820_3" function="internal">
        <lane id=":10774460820_3_0" index="0" disallow="tram rail_urban rail rail_electric rail_fast ship container cable_car subway aircraft wheelchair scooter drone" speed="6.17" length="9.05" shape="4737.01,2312.29 4736.87,2314.83 4737.61,2316.67 4739.23,2317.80 4741.74,2318.24"/>
    </edge>
    <edge id=":10774460820_4" function="internal">
        <lane id=":10774460820_4_0" index="0" disallow="tram rail_urban rail rail_electric rail_fast ship container cable_car subway aircraft wheelchair scooter drone" speed="27.78" length="14.51" shape="4737.01,2312.29 4734.14,2326.50"/>
        <lane id=":10774460820_4_1" index="1" disallow="tram rail_urban rail rail_electric rail_fast ship container cable_car subway aircraft wheelchair scooter drone" speed="27.78" length="14.51" shape="4733.88,2311.65 4733.37,2315.92 4732.74,2318.80 4731.97,2321.66 4731.01,2325.86"/>
    </edge>
    <edge id=":10774460820_6" function="internal">
        <lane id=":10774460820_6_0" index="0" disallow="tram rail_urban rail rail_electric rail_fast ship container cable_car subway aircraft wheelchair scooter drone" speed="3.66" length="1.45" shape="4733.88,2311.65 4732.85,2312.68"/>
    </edge>
    <edge id=":10774460820_11" function="internal">
        <lane id=":10774460820_11_0" index="0" disallow="tram rail_urban rail rail_electric rail_fast ship container cable_car subway aircraft wheelchair scooter drone" speed="3.66" length="3.25" shape="4732.85,2312.68 4731.98,2312.91 4731.27,2312.36 4730.72,2311.01"/>
    </edge>
    <edge id=":10774460820_7" function="internal">
        <lane id=":10774460820_7_0" index="0" disallow="tram rail_urban rail rail_electric rail_fast ship container cable_car subway aircraft wheelchair scooter drone" speed="27.78" length="14.53" shape="4724.73,2324.60 4725.69,2320.40 4726.45,2317.53 4727.06,2314.65 4727.56,2310.37"/>
        <lane id=":10774460820_7_1" index="1" disallow="tram rail_urban rail rail_electric rail_fast ship container cable_car subway aircraft wheelchair scooter drone" speed="27.78" length="14.53" shape="4727.87,2325.23 4728.83,2321.03 4729.60,2318.17 4730.21,2315.28 4730.72,2311.01"/>
    </edge>
    <edge id=":10774460820_9" function="internal">
        <lane id=":10774460820_9_0" index="0" disallow="tram rail_urban rail rail_electric rail_fast ship container cable_car subway aircraft wheelchair scooter drone" speed="9.28" length="3.50" shape="4727.87,2325.23 4729.29,2322.04"/>
    </edge>
    <edge id=":10774460820_10" function="internal">
        <lane id=":10774460820_10_0" index="0" disallow="tram rail_urban rail rail_electric rail_fast ship container cable_car subway aircraft wheelchair scooter drone" speed="3.65" length="1.44" shape="4727.87,2325.23 4728.89,2324.22"/>
    </edge>
    <edge id=":10774460820_12" function="internal">
        <lane id=":10774460820_12_0" index="0" disallow="tram rail_urban rail rail_electric rail_fast ship container cable_car subway aircraft wheelchair scooter drone" speed="9.28" length="13.43" shape="4729.29,2322.04 4732.08,2319.81 4736.23,2318.54 4741.74,2318.24"/>
    </edge>
    <edge id=":10774460820_13" function="internal">
        <lane id=":10774460820_13_0" index="0" disallow="tram rail_urban rail rail_electric rail_fast ship container cable_car subway aircraft wheelchair scooter drone" speed="3.65" length="3.23" shape="4728.89,2324.22 4729.75,2323.98 4730.46,2324.53 4731.01,2325.86"/>
    </edge>
    <edge id=":10781844850_0" function="internal">
        <lane id=":10781844850_0_0" index="0" disallow="tram rail_urban rail rail_electric rail_fast ship container cable_car subway aircraft wheelchair scooter drone" speed="13.89" length="0.30" shape="308.91,1921.39 309.18,1921.24"/>
        <lane id=":10781844850_0_1" index="1" disallow="tram rail_urban rail rail_electric rail_fast ship container cable_car subway aircraft wheelchair scooter drone" speed="13.89" length="0.30" shape="310.53,1924.16 310.78,1924.01"/>
    </edge>
    <edge id=":10781844854_0" function="internal">
        <lane id=":10781844854_0_0" index="0" disallow="tram rail_urban rail rail_electric rail_fast ship container cable_car subway aircraft wheelchair scooter drone" speed="27.78" length="0.10" shape="321.29,1933.33 321.29,1933.33"/>
        <lane id=":10781844854_0_1" index="1" disallow="tram rail_urban rail rail_electric rail_fast ship container cable_car subway aircraft wheelchair scooter drone" speed="27.78" length="0.10" shape="319.75,1930.53 319.75,1930.53"/>
    </edge>
    <edge id=":10893316187_0" function="internal">
        <lane id=":10893316187_0_0" index="0" disallow="tram rail_urban rail rail_electric rail_fast ship container cable_car subway aircraft wheelchair scooter drone" speed="27.78" length="0.10" shape="6046.71,650.76 6046.71,650.76"/>
        <lane id=":10893316187_0_1" index="1" disallow="tram rail_urban rail rail_electric rail_fast ship container cable_car subway aircraft wheelchair scooter drone" speed="27.78" length="0.10" shape="6049.91,650.66 6049.91,650.66"/>
    </edge>
    <edge id=":10893316188_0" function="internal">
        <lane id=":10893316188_0_0" index="0" disallow="tram rail_urban rail rail_electric rail_fast ship container cable_car subway aircraft wheelchair scooter drone" speed="27.78" length="0.30" shape="5982.65,542.92 5982.95,542.89"/>
        <lane id=":10893316188_0_1" index="1" disallow="tram rail_urban rail rail_electric rail_fast ship container cable_car subway aircraft wheelchair scooter drone" speed="27.78" length="0.30" shape="5982.97,546.11 5983.27,546.08"/>
    </edge>
    <edge id=":10899524546_0" function="internal">
        <lane id=":10899524546_0_0" index="0" disallow="pedestrian bicycle tram rail_urban rail rail_electric rail_fast ship container cable_car subway aircraft wheelchair scooter drone" speed="13.89" length="0.30" shape="526.82,1495.75 526.90,1495.45"/>
    </edge>
    <edge id=":10925966510_0" function="internal">
        <lane id=":10925966510_0_0" index="0" disallow="pedestrian bicycle tram rail_urban rail rail_electric rail_fast ship container cable_car subway aircraft wheelchair scooter drone" speed="27.78" length="7.74" shape="8896.72,5600.88 8895.64,5598.80 8894.59,5597.52 8893.62,5596.21 8892.75,5594.06"/>
        <lane id=":10925966510_0_1" index="1" disallow="pedestrian bicycle tram rail_urban rail rail_electric rail_fast ship container cable_car subway aircraft wheelchair scooter drone" speed="27.78" length="7.74" shape="8896.72,5600.88 8896.13,5598.69 8896.14,5597.09 8896.21,5595.47 8895.83,5593.20"/>
        <lane id=":10925966510_0_2" index="2" disallow="pedestrian bicycle tram rail_urban rail rail_electric rail_fast ship container cable_car subway aircraft wheelchair scooter drone" speed="27.78" length="7.74" shape="8899.70,5599.72 8899.14,5597.61 8899.17,5596.07 8899.27,5594.51 8898.91,5592.34"/>
    </edge>
    <edge id=":10926817924_0" function="internal">
        <lane id=":10926817924_0_0" index="0" disallow="tram rail_urban rail rail_electric rail_fast ship container cable_car subway aircraft wheelchair scooter drone" speed="27.78" length="0.30" shape="1313.38,1760.06 1313.10,1759.96"/>
    </edge>
    <edge id=":10932115664_0" function="internal">
        <lane id=":10932115664_0_0" index="0" disallow="tram rail_urban rail rail_electric rail_fast ship container cable_car subway aircraft wheelchair scooter drone" speed="11.11" length="0.30" shape="2521.91,2086.69 2522.20,2086.74"/>
        <lane id=":10932115664_0_1" index="1" disallow="tram rail_urban rail rail_electric rail_fast ship container cable_car subway aircraft wheelchair scooter drone" speed="11.11" length="0.30" shape="2521.38,2089.84 2521.68,2089.89"/>
    </edge>
    <edge id=":10932115665_0" function="internal">
        <lane id=":10932115665_0_0" index="0" disallow="tram rail_urban rail rail_electric rail_fast ship container cable_car subway aircraft wheelchair scooter drone" speed="27.78" length="0.10" shape="2527.23,2102.29 2527.23,2102.29"/>
        <lane id=":10932115665_0_1" index="1" disallow="tram rail_urban rail rail_electric rail_fast ship container cable_car subway aircraft wheelchair scooter drone" speed="27.78" length="0.10" shape="2527.69,2099.13 2527.69,2099.13"/>
    </edge>
    <edge id=":10933668855_0" function="internal">
        <lane id=":10933668855_0_0" index="0" disallow="tram rail_urban rail rail_electric rail_fast ship container cable_car subway aircraft wheelchair scooter drone" speed="27.78" length="0.10" shape="120.98,2623.89 120.98,2623.89"/>
    </edge>
    <edge id=":10933668866_0" function="internal">
        <lane id=":10933668866_0_0" index="0" disallow="tram rail_urban rail rail_electric rail_fast ship container cable_car subway aircraft wheelchair scooter drone" speed="27.78" length="0.10" shape="122.42,2629.29 122.42,2629.29"/>
    </edge>
    <edge id=":10933668872_0" function="internal">
        <lane id=":10933668872_0_0" index="0" disallow="tram rail_urban rail rail_electric rail_fast ship container cable_car subway aircraft wheelchair scooter drone" speed="27.78" length="0.30" shape="2385.33,3378.03 2385.05,3377.97"/>
    </edge>
    <edge id=":10973960230_0" function="internal">
        <lane id=":10973960230_0_0" index="0" disallow="tram rail_urban rail rail_electric rail_fast ship container cable_car subway aircraft wheelchair scooter drone" speed="27.78" length="0.10" shape="3412.65,3394.72 3412.65,3394.72"/>
    </edge>
    <edge id=":10973960230_1" function="internal">
        <lane id=":10973960230_1_0" index="0" disallow="tram rail_urban rail rail_electric rail_fast ship container cable_car subway aircraft wheelchair scooter drone" speed="27.78" length="0.10" shape="3409.75,3393.36 3409.75,3393.36"/>
    </edge>
    <edge id=":10974036527_0" function="internal">
        <lane id=":10974036527_0_0" index="0" disallow="tram rail_urban rail rail_electric rail_fast ship container cable_car subway aircraft wheelchair scooter drone" speed="22.22" length="0.10" shape="8412.56,6493.93 8412.56,6493.93"/>
    </edge>
    <edge id=":10974036528_0" function="internal">
        <lane id=":10974036528_0_0" index="0" disallow="tram rail_urban rail rail_electric rail_fast ship container cable_car subway aircraft wheelchair scooter drone" speed="22.22" length="0.10" shape="8422.61,6492.02 8422.61,6492.02"/>
    </edge>
    <edge id=":10989765271_0" function="internal">
        <lane id=":10989765271_0_0" index="0" disallow="tram rail_urban rail rail_electric rail_fast ship container cable_car subway aircraft wheelchair scooter drone" speed="27.78" length="0.30" shape="451.15,1754.10 451.40,1753.93"/>
        <lane id=":10989765271_0_1" index="1" disallow="tram rail_urban rail rail_electric rail_fast ship container cable_car subway aircraft wheelchair scooter drone" speed="27.78" length="0.30" shape="452.94,1756.75 453.19,1756.58"/>
    </edge>
    <edge id=":10997320405_0" function="internal">
        <lane id=":10997320405_0_0" index="0" disallow="tram rail_urban rail rail_electric rail_fast ship container cable_car subway aircraft wheelchair scooter drone" speed="22.22" length="0.30" shape="7507.06,6782.77 7506.78,6782.89"/>
    </edge>
    <edge id=":10997320406_0" function="internal">
        <lane id=":10997320406_0_0" index="0" disallow="tram rail_urban rail rail_electric rail_fast ship container cable_car subway aircraft wheelchair scooter drone" speed="22.22" length="0.10" shape="7503.84,6770.49 7503.84,6770.49"/>
    </edge>
    <edge id=":1106837737_0" function="internal">
        <lane id=":1106837737_0_0" index="0" disallow="tram rail_urban rail rail_electric rail_fast ship container cable_car subway aircraft wheelchair scooter drone" speed="27.78" length="0.30" shape="443.56,1604.14 443.52,1604.12 443.49,1604.11 443.46,1604.10 443.42,1604.09"/>
        <lane id=":1106837737_0_1" index="1" disallow="tram rail_urban rail rail_electric rail_fast ship container cable_car subway aircraft wheelchair scooter drone" speed="27.78" length="0.30" shape="444.64,1601.12 444.52,1601.08 444.43,1601.05 444.34,1601.03 444.21,1600.99"/>
    </edge>
    <edge id=":1106837824_0" function="internal">
        <lane id=":1106837824_0_0" index="0" disallow="tram rail_urban rail rail_electric rail_fast ship container cable_car subway aircraft wheelchair scooter drone" speed="27.78" length="3.08" shape="492.04,1570.90 489.69,1572.41"/>
        <lane id=":1106837824_0_1" index="1" disallow="tram rail_urban rail rail_electric rail_fast ship container cable_car subway aircraft wheelchair scooter drone" speed="27.78" length="3.08" shape="494.29,1573.18 491.49,1575.05"/>
    </edge>
    <edge id=":1106837878_0" function="internal">
        <lane id=":1106837878_0_0" index="0" disallow="tram rail_urban rail rail_electric rail_fast ship container cable_car subway aircraft wheelchair scooter drone" speed="6.78" length="9.72" shape="13.36,745.87 12.57,743.42 12.78,741.26 14.01,739.38 16.24,737.79"/>
        <lane id=":1106837878_0_1" index="1" disallow="tram rail_urban rail rail_electric rail_fast ship container cable_car subway aircraft wheelchair scooter drone" speed="6.01" length="7.43" shape="13.36,745.87 13.20,744.67 13.87,743.40 15.39,742.05 17.74,740.62"/>
    </edge>
    <edge id=":1106837878_2" function="internal">
        <lane id=":1106837878_2_0" index="0" disallow="tram rail_urban rail rail_electric rail_fast ship container cable_car subway aircraft wheelchair scooter drone" speed="3.65" length="4.67" shape="13.36,745.87 13.54,744.44 14.08,743.72 14.97,743.72 16.22,744.44"/>
    </edge>
    <edge id=":11401435282_0" function="internal">
        <lane id=":11401435282_0_0" index="0" disallow="tram rail_urban rail rail_electric rail_fast ship container cable_car subway aircraft wheelchair scooter drone" speed="27.78" length="0.30" shape="553.20,1771.53 553.47,1771.40"/>
        <lane id=":11401435282_0_1" index="1" disallow="tram rail_urban rail rail_electric rail_fast ship container cable_car subway aircraft wheelchair scooter drone" speed="27.78" length="0.30" shape="554.65,1774.38 554.92,1774.25"/>
    </edge>
    <edge id=":11401435294_0" function="internal">
        <lane id=":11401435294_0_0" index="0" allow="pedestrian bus delivery bicycle" speed="5.56" length="0.10" shape="556.18,1731.92 556.18,1731.92"/>
    </edge>
    <edge id=":11403178493_0" function="internal">
        <lane id=":11403178493_0_0" index="0" disallow="tram rail_urban rail rail_electric rail_fast ship container cable_car subway aircraft wheelchair scooter drone" speed="27.78" length="0.26" shape="2299.04,2064.00 2298.85,2063.88"/>
        <lane id=":11403178493_0_1" index="1" disallow="tram rail_urban rail rail_electric rail_fast ship container cable_car subway aircraft wheelchair scooter drone" speed="27.78" length="0.26" shape="2300.86,2061.37 2300.61,2061.20"/>
    </edge>
    <edge id=":11414255398_0" function="internal">
        <lane id=":11414255398_0_0" index="0" disallow="tram rail_urban rail rail_electric rail_fast ship container cable_car subway aircraft wheelchair scooter drone" speed="22.22" length="0.30" shape="8353.57,6241.88 8353.65,6242.16"/>
    </edge>
    <edge id=":11505488522_0" function="internal">
        <lane id=":11505488522_0_0" index="0" disallow="tram rail_urban rail rail_electric rail_fast ship container cable_car subway aircraft wheelchair scooter drone" speed="27.78" length="0.30" shape="8851.46,5737.26 8851.73,5737.11"/>
        <lane id=":11505488522_0_1" index="1" disallow="tram rail_urban rail rail_electric rail_fast ship container cable_car subway aircraft wheelchair scooter drone" speed="27.78" length="0.30" shape="8853.05,5740.03 8853.31,5739.88"/>
    </edge>
    <edge id=":11505488523_0" function="internal">
        <lane id=":11505488523_0_0" index="0" disallow="tram rail_urban rail rail_electric rail_fast ship container cable_car subway aircraft wheelchair scooter drone" speed="27.78" length="0.29" shape="8864.82,5753.11 8864.56,5753.16"/>
        <lane id=":11505488523_0_1" index="1" disallow="tram rail_urban rail rail_electric rail_fast ship container cable_car subway aircraft wheelchair scooter drone" speed="27.78" length="0.29" shape="8864.28,5749.96 8863.97,5750.01"/>
    </edge>
    <edge id=":11506725578_0" function="internal">
        <lane id=":11506725578_0_0" index="0" disallow="tram rail_urban rail rail_electric rail_fast ship container cable_car subway aircraft wheelchair scooter drone" speed="22.22" length="0.22" shape="275.35,1931.32 275.55,1931.23"/>
    </edge>
    <edge id=":11716260622_0" function="internal">
        <lane id=":11716260622_0_0" index="0" disallow="tram rail_urban rail rail_electric rail_fast ship container cable_car subway aircraft wheelchair scooter drone" speed="27.78" length="0.10" shape="6212.49,3353.26 6212.49,3353.26"/>
        <lane id=":11716260622_0_1" index="1" disallow="tram rail_urban rail rail_electric rail_fast ship container cable_car subway aircraft wheelchair scooter drone" speed="27.78" length="0.10" shape="6215.61,3352.52 6215.61,3352.52"/>
    </edge>
    <edge id=":11716260624_0" function="internal">
        <lane id=":11716260624_0_0" index="0" disallow="tram rail_urban rail rail_electric rail_fast ship container cable_car subway aircraft wheelchair scooter drone" speed="27.78" length="0.30" shape="6256.09,3386.73 6256.15,3387.02"/>
        <lane id=":11716260624_0_1" index="1" disallow="tram rail_urban rail rail_electric rail_fast ship container cable_car subway aircraft wheelchair scooter drone" speed="27.78" length="0.30" shape="6252.95,3387.38 6253.01,3387.67"/>
    </edge>
    <edge id=":11752519426_0" function="internal">
        <lane id=":11752519426_0_0" index="0" disallow="tram rail_urban rail rail_electric rail_fast ship container cable_car subway aircraft wheelchair scooter drone" speed="27.78" length="7.59" shape="6216.61,3370.55 6214.85,3363.16"/>
        <lane id=":11752519426_0_1" index="1" disallow="tram rail_urban rail rail_electric rail_fast ship container cable_car subway aircraft wheelchair scooter drone" speed="27.78" length="7.59" shape="6219.72,3369.81 6217.96,3362.42"/>
    </edge>
    <edge id=":11752519426_2" function="internal">
        <lane id=":11752519426_2_0" index="0" disallow="tram rail_urban rail rail_electric rail_fast ship container cable_car subway aircraft wheelchair scooter drone" speed="9.29" length="7.59" shape="6212.51,3370.02 6213.77,3368.13 6214.69,3366.75 6215.10,3365.29 6214.85,3363.16"/>
    </edge>
    <edge id=":11752519430_0" function="internal">
        <lane id=":11752519430_0_0" index="0" disallow="tram rail_urban rail rail_electric rail_fast ship container cable_car subway aircraft wheelchair scooter drone" speed="12.87" length="14.65" shape="6304.69,3425.08 6300.25,3424.13 6296.77,3424.21 6293.72,3425.10 6290.60,3426.58"/>
    </edge>
    <edge id=":11752519430_1" function="internal">
        <lane id=":11752519430_1_0" index="0" disallow="tram rail_urban rail rail_electric rail_fast ship container cable_car subway aircraft wheelchair scooter drone" speed="27.78" length="14.73" shape="6304.69,3425.08 6290.58,3420.84"/>
        <lane id=":11752519430_1_1" index="1" disallow="tram rail_urban rail rail_electric rail_fast ship container cable_car subway aircraft wheelchair scooter drone" speed="27.78" length="14.73" shape="6305.61,3422.01 6291.50,3417.77"/>
    </edge>
    <edge id=":11752519443_0" function="internal">
        <lane id=":11752519443_0_0" index="0" disallow="tram rail_urban rail rail_electric rail_fast ship container cable_car subway aircraft wheelchair scooter drone" speed="12.50" length="8.60" shape="6270.83,3449.88 6269.59,3452.13 6268.66,3453.72 6268.17,3455.37 6268.25,3457.83"/>
    </edge>
    <edge id=":11752519443_1" function="internal">
        <lane id=":11752519443_1_0" index="0" disallow="tram rail_urban rail rail_electric rail_fast ship container cable_car subway aircraft wheelchair scooter drone" speed="13.89" length="8.61" shape="6266.92,3449.33 6268.25,3457.83"/>
    </edge>
    <edge id=":11752519445_0" function="internal">
        <lane id=":11752519445_0_0" index="0" disallow="tram rail_urban rail rail_electric rail_fast ship container cable_car subway aircraft wheelchair scooter drone" speed="27.78" length="10.38" shape="6252.24,3741.82 6242.44,3738.40"/>
        <lane id=":11752519445_0_1" index="1" disallow="tram rail_urban rail rail_electric rail_fast ship container cable_car subway aircraft wheelchair scooter drone" speed="27.78" length="10.38" shape="6253.29,3738.79 6243.49,3735.38"/>
    </edge>
    <edge id=":11752519445_2" function="internal">