<additional>
    <vType id="bus"
        vClass="bus"
        width="2.5"
        length="12"
        height="3.2"
        minGap="2.5"
        maxSpeed="13.9"
        accel="1.2"
        decel="2.5"
        sigma="0.5"
        guiShape="bus"
        lcStrategic="1"
        lcSpeedGain="1"
        lcKeepRight="0"/>

</additional>