<?xml version="1.0" encoding="UTF-8"?>

<!-- generated on 2026-02-16 15:43:51.975443 by Eclipse SUMO gtfs2pt.py v1_25_0+0000-ac6c5a6752d
<configuration>
    <gtfs value="data/filtered_gtfs.zip"/>
    <date value="20240115"/>
    <network value="sumo_files/addis.net.xml"/>
    <route-output value="sumo_files/routes.rou.xml"/>
    <additional-output value="sumo_files/stops.add.xml"/>
    <center-stops value="True"/>
    <radius value="120.0"/>
</configuration>
-->

<routes xmlns:xsi="http://www.w3.org/2001/XMLSchema-instance" xsi:noNamespaceSchemaLocation="http://sumo.dlr.de/xsd/routes_file.xsd">
    <route id="0" edges="26006215#0 26006215#1 26006215#2 26006215#3 26006215#4 26006215#5 26006215#6 26006215#7 26006215#8 26006215#9 576629480 576629481 1163837191 388293007 1163837194 1230586458 754680366 61605508 531914720 749949695 1171577067 612810674#0 612810674#1 612810673#0 77488893 678134210 754643298 61605507 759916142 95850715#0 95850715#1 95850715#2 95850715#3 95850715#4 1136170022 200567856 200567867#0 200567867#1 1227210265 165070357#0 165070357#1 558107786 1096200708 558107787">
        <stop busStop="0.0" duration="10"/> <!-- Legedadi Mission -->
        <stop busStop="0.1" duration="10"/> <!-- Tafo Condominium 1 -->
        <stop busStop="0.2" duration="10"/> <!-- Tafo Condominium 2 -->
        <stop busStop="0.3" duration="10"/> <!-- Tafo Mebrathail -->
        <stop busStop="0.4" duration="10"/> <!-- Yeka 03 -->
        <stop busStop="0.5" duration="10"/> <!-- Zone 8 -->
        <stop busStop="0.6" duration="10"/> <!-- Hill Bottom (Recreation) -->
        <stop busStop="0.7" duration="10"/> <!-- Ayat Train Station -->
        <stop busStop="0.8" duration="10"/> <!-- Ayat Zone 2 -->
        <stop busStop="0.9" duration="10"/> <!-- Meri -->
        <stop busStop="0.10" duration="10"/> <!-- CMC (Apartments) -->
        <stop busStop="0.11" duration="10"/> <!-- St. Micheal Church -->
        <stop busStop="0.12" duration="10"/> <!-- Civil Service College -->
        <stop busStop="0.13" duration="10"/> <!-- Management Institute -->
        <stop busStop="0.14" duration="10"/> <!-- Gurd-shola -->
    </route>
    <route id="1" edges="61605505#2 1176666666 762340632 762340631 762340630 558107788 558107790#0 558107790#1 165070359#0 165070359#1 200567858 200567866#0 200567866#1 200567866#2 200567866#3 1098266608 759916162 749949699 759916161 112142498#0 112142498#1 112142498#2 112142498#3 678134214 678134217#0 678134217#1 678134217#2 1175871547 1171577068 1176155644 61605509 1176155645 749949696 754643300 25823215#0 25823215#1 754680365 754643301 576629479 576629478 112158741#0 112158741#1 112158741#2 26006215#8 112158741#2 112158741#3 112158741#4 112158741#5 112158741#6 112158741#7 112158741#8 112158741#9 112158741#10 112158741#11 754643297#0">
        <stop busStop="1.0" duration="10"/> <!-- Century Mall -->
        <stop busStop="1.1" duration="10"/> <!-- Gurd Shola -->
        <stop busStop="1.2" duration="10"/> <!-- Sealite Mihret -->
        <stop busStop="1.3" duration="10" /> <!-- Civil Service College -->
        <stop busStop="1.4" duration="10"/> <!-- St. Michael -->
        <stop busStop="1.5" duration="10" /> <!-- CMC (Apartments) -->
        <stop busStop="1.8" duration="10"/> <!-- Ayat -->
        <stop busStop="1.10" duration="10"/> <!-- Ayat Roundabout -->
        <stop busStop="1.11" duration="10"/> <!-- Yekiber Demena Church -->
        <stop busStop="1.12" duration="10"/> <!-- Yeka Condominium 1 -->
        <stop busStop="1.13" duration="10"/> <!-- Tafo Gebrael -->
        <stop busStop="1.14" duration="10"/> <!-- Gebriel -->
        <stop busStop="1.15" duration="10"/> <!-- Tafo Mebrathail -->
        <stop busStop="1.16" duration="10"/> <!-- Tafo Condominium 2 -->
        <stop busStop="1.17" duration="10"/> <!-- Tafo Condominium 1 -->
        <stop busStop="1.18" duration="10"/> <!-- Aba Kiros Roundabout -->
        <stop busStop="1.19" duration="10" /> <!-- Aba Kiros -->
        <stop busStop="1.20" duration="10"/> <!-- Makefafeya -->
        <stop busStop="1.21" duration="10"/> <!-- Gari Tera -->
        <stop busStop="1.22" duration="10"/> <!-- CCD -->
        <stop busStop="1.23" duration="10"/> <!-- 140 -->
        <stop busStop="1.24" duration="10"/> <!-- Legedadi Mission -->
    </route>
    <route id="4" edges="754690751#0 754690751#1 112142508#0 112142508#1 112142508#2 112142508#3 531914691#0 531914691#1 531914691#2 749949671 749949670 1175871546 754643300 754643299 749949695 1171577067 612810674#0 612810674#1 612810673#0 77488893 678134210 754643298 61605507 759916142 95850715#0 95850715#1 95850715#2 95850715#3 95850715#4 1136170022 200567856 200567867#0">
        <stop busStop="4.0" duration="10"/> <!-- Ayat Chefe Condominium -->
        <stop busStop="4.1" duration="10"/> <!-- Police Tabia -->
        <stop busStop="4.2" duration="10"/> <!-- Tsebel -->
        <stop busStop="0.7" duration="10"/> <!-- Ayat Train Station -->
        <stop busStop="0.8" duration="10"/> <!-- Ayat Zone 2 -->
        <stop busStop="0.9" duration="10"/> <!-- Meri -->
        <stop busStop="0.11" duration="10"/> <!-- St. Micheal Church -->
        <stop busStop="0.13" duration="10"/> <!-- Management Institute -->
    </route>
    <route id="5" edges="61605505#2 1176666666 762340632 762340631 762340630 558107788 558107790#0 558107790#1 165070359#0 165070359#1 200567858 200567866#0 200567866#1 200567866#2 200567866#3 1098266608 759916162 749949699 759916161 112142498#0 112142498#1 112142498#2 112142498#3 678134214 678134217#0 678134217#1 678134217#2 1175871547 1171577068 1176155644 61605509 1176155645 749949694 112142482#0 112142482#1 112142482#2 112142482#3 112142482#4 112142482#5 754690746#0 754690746#1 755224014">
        <stop busStop="1.0" duration="10"/> <!-- Century Mall -->
        <stop busStop="5.4" duration="10"/> <!-- Ayat Square -->
        <stop busStop="5.5" duration="10"/> <!-- Feres Bet -->
        <stop busStop="5.6" duration="10"/> <!-- Bono Meskid -->
        <stop busStop="5.7" duration="10"/> <!-- Ayat Chefe Condominium -->
    </route>
    <vehicle id="0.0" route="0" type="bus" depart="21590" line="0">
        <param key="gtfs.route_name" value="AB097"/>
        <param key="gtfs.trip_headsign" value="Megenagna Terminal"/>
    </vehicle>
    <vehicle id="1.0" route="1" type="bus" depart="21590" line="1">
        <param key="gtfs.route_name" value="AB097"/>
        <param key="gtfs.trip_headsign" value="Legedadi Mission"/>
    </vehicle>
    <vehicle id="4.0" route="4" type="bus" depart="21590" line="4">
        <param key="gtfs.route_name" value="AB049"/>
        <param key="gtfs.trip_headsign" value="Megenagna Terminal"/>
    </vehicle>
    <vehicle id="5.0" route="5" type="bus" depart="21590" line="5">
        <param key="gtfs.route_name" value="AB049"/>
        <param key="gtfs.trip_headsign" value="Ayat Chefe Condominium"/>
    </vehicle>
</routes>
